 ****** HSPICE -- G-2012.06-SP1 32-BIT (Aug 27 2012) win32 ******               
  Copyright (C) 2012 Synopsys, Inc. All Rights Reserved.                        
  Unpublished-rights reserved under US copyright laws.
  This program is protected by law and is subject to the
  terms and conditions of the license agreement from Synopsys.
  Use of this program is your acceptance to be bound by the
  license agreement. HSPICE is the trademark of Synopsys, Inc.
  Input File: mux_tf.sp                                                         
  Command line options: -mt 2 -i mux_tf.sp -o mux_tf.lis
  lic:  
  lic: FLEXlm: v10.9.8 
  lic: USER:   Bangonkali           HOSTNAME: Blue 
  lic: HOSTID: "b8975a02aecc 005056c00001 005056c00008 08002700905e" PID:      5
 640 
  lic: Using FLEXlm license file: 
  lic: 27000@Blue 
  lic: Checkout 1 hspice 
  lic: License/Maintenance for hspice will expire on 31-dec-2019/2019.12 
  lic: NODE LOCKED license on hostid "b8975a02aecc 005056c00001 005056c00008 080
 02700905e" 
  lic:   
 Init: read install configuration file: c:\synopsys\Hspice_G-2012.06-SP1\meta.cfg
1****** HSPICE -- G-2012.06-SP1 32-BIT (Aug 27 2012) win32 ******               
 ******  
 4 to 1 multiplexer

  ******  circuit name directory
 circuit number to circuit name directory
   number circuitname                     definition         multiplier
        0 main circuit
        1 xmux.                           mux                1.00 
        2 xmux.xnand3_a0.                 nand3              1.00 
        3 xmux.xnand3_a1.                 nand3              1.00 
        4 xmux.xnand3_a2.                 nand3              1.00 
        5 xmux.xnand3_a3.                 nand3              1.00 
        6 xmux.xnot_n0.                   not                1.00 
        7 xmux.xnot_n1.                   not                1.00 
        8 xmux.xnot_n2.                   not                1.00 
        9 xmux.xnot_n3.                   not                1.00 
       10 xmux.xnot_s0.                   not                1.00 
       11 xmux.xnot_s1.                   not                1.00 
       12 xmux.xnor4.                     nor4               1.00 
       13 xmux.xnot_z0.                   not                1.00 
  **info** (mux_tf.sp:20) DC voltage reset to initial transient source value              in source        0:va0                 new dc=  0.1800D+01
 ***************************************************************************
 ***        model parameters  model name:   0:nch.16   model type:nmos   ***
 ***************************************************************************

   *** general parameters ***
    deriv=   0.           

   ***  level 49  model parameters  ***

       hspver=    2006.03               level=         49         
      version=       3.24            paramchk=          0         
       apwarn=          1                lite=          0         
       vgslim=          0             binUnit=          2         
       capMod=          3               xpart=          1         
       mobMod=          1              nqsMod=          0         
       stiMod=          0                 elm=          5         
     sfvtflag=          0                 tox=  4.08e-009 meter   
           xj=   1.6e-007 meter       binflag=          0         
         lmin=   1.8e-007 meter          lmax=     5e-007 meter   
         wmin=   2.2e-007 meter          wmax=     5e-007 meter   
         lref=          0 meter          wref=          0 meter   
         lint=     1e-008 meter          wint=     3e-009 meter   
        lmult=          1               wmult=          1         
           ll=          0                 lln=         -1         
           lw=          0                 lwn=          1         
          lwl=          0                  wl=          0         
          wln=          1                  ww=          0         
          wwn=          1                 wwl=          0         
          dwg=          0 m/V             dwb=          0 m/V^1/2 
           xl=    -2e-008                  xw=          0         
           a0=   0.270794                 ags=  0.0548038 V^-1    
           b0=          0 meter            b1=          0 meter   
         keta=  -0.030444 V^-1           voff=  -0.118241 V       
        ngate=          0 cm^-3           vbx=          0 V       
          vbm=         -3 V                xt=  1.55e-007 meter   
         vth0=   0.486292 V               nch=   3.9e+017 cm^-3   
         nsub=     6e+016 cm^-3           nlx=          0 meter   
       gamma1=          0 V^-1/2       gamma2=          0 V^-1/2  
           k1=   0.494278 V^1/2            k2=  0.0235183         
           k3=          0                 k3b=          0 V^-1    
           w0=          0 meter          dvt0=          0         
         dvt1=          0                dvt2=          0 V^-1    
        dvt0w=          0 meter^-1      dvt1w=          0 meter^-1
        dvt2w=          0 V^-1           dsub=          0         
         eta0=-0.000262195                etab= 0.00134878 V^-1    
           u0=  0.0371035 m^2/V/sec         ua=-6.61435e-010 m/V     
           ub=2.13014e-018 (m/V)^2          uc=1.25265e-010 V^-1    
         vsat=    85400.6 m/sec            a1=          0 v^-1    
           a2=       0.99               delta=       0.01 V       
         rdsw=        170 ohm-um         prwg=          0 V^-1    
         prwb=          0 V^-1/2           wr=          1         
         pclm=    1.13553             pdiblc1=     1e-006         
      pdiblc2=-0.00714024             pdiblcb=       0.01 V^-1    
       pscbe1=     4e+008 V/m          pscbe2=     1e-006 V/m     
        drout=          0                pvag=          0         
      nfactor=          1                cdsc=          0 f/m^2   
        cdscb=          0 f/V/m^2       cdscd=          0 f/V/m^2 
          cit=0.000291384 f/m^2        alpha0=          0 m/V     
        beta0=    11.5926 V               dlc=     3e-009 meter   
          dwc=     3e-009 meter           clc=     1e-007 meter   
          cle=        0.6                cgso= 3.665e-010 f/m     
         cgdo= 3.665e-010 f/m            cgbo=5.07814e-011 f/m     
         cgsl=          0 f/m            cgdl=          0 f/m     
       ckappa=        0.6                  cf=          0 f/m     
         acde=          1 m/V            moin=         15 V^1/2   
         toxm=  4.08e-009 m            dtoxcv=          0 m       
          vfb (not used)                alpha1=   0.448151 1/V     
         ijth=        0.1 A              noff=          1         
       voffcv=          0                 tcj= 0.00104029 1/K     
        tcjsw=0.000645489 1/K          tcjswg=0.000645489 1/K     
          tpb= 0.00155431 V/K           tpbsw= 0.00155431 V/K     
       tpbswg= 0.00155431 V/K             llc=     -0.039         
          lwc=          0                lwlc=          0         
          wlc=          0                 wwc=          0         
         wwlc=          0                tnom=     298.15 K       
          kt1=  -0.192941 V              kt1l=          0         
          kt2= -0.0393792                 ute=    -1.9466         
          ua1= 1.224e-009 m/V             ub1=-3.10278e-018 (m/V)^2 
          uc1=-2.46538e-010 m/V^2            at=      20000 m/s     
          prt=          0         
          using Berkeley noise model       noiMod=          2         
         noia=     2e+019                noib=      12000         
         noic=   2.5e-013                  em=     3e+007         
           ef=      0.874                  af=          1         
           kf=          0              gdsnoi=-1.23457e-029         
          using Berkeley diodes          using ACM 
          acm=        12                 hdif=    2e-007 meter    
         ldif=    9e-008 meter             js=  3.5e-007 amp/m^2  
          jsw= 1.45e-012 amp/m            xti=         3          
           nj=         1                   cj=0.00100027 f/m^2    
           mj=  0.359526                   pb=  0.688268 V        
         cjsw=2.04055e-010 f/m             mjsw=  0.200388          
          php (not used)                  pbsw=  0.688268 V        
       cjgate (not used)                 cjswg=3.34055e-010 f/m      
        mjswg=   0.43879                pbswg=  0.688268 V        
          la0=1.1871e-007                lags=-1.60097e-008         
        lketa=4.87385e-010               lvoff=-3.89527e-009         
        lvth0=1.44836e-008                 lk1=3.24743e-008         
          lk2=-1.49475e-008               leta0=1.66627e-010         
        letab=-6.66439e-010                 lu0=1.60155e-009         
          lua=2.65818e-017                 lub=-8.89945e-026         
          luc=-1.59049e-017               lvsat=-0.000206266         
        lpclm=7.12582e-008            lpdiblc2=5.56251e-009         
         lcit=9.59634e-011                lkt1=-4.8344e-010         
         lkt2=1.87776e-009                lute=4.90364e-008         
         lub1=3.26055e-025                luc1=5.70775e-017         
          wa0=2.89549e-007                wags=-1.10159e-008         
        wketa=4.61441e-009               wvoff=-3.98773e-010         
        wvth0=-1.49092e-008                 wk1=-1.99853e-008         
          wk2=4.55205e-009                 wu0=1.29211e-009         
          wua=4.71111e-017                 wub=-1.13452e-025         
          wuc=-3.17952e-017               wvsat=0.000589981         
        wpclm=1.23799e-007            wpdiblc2=8.65375e-010         
         wcit=-2.75399e-012                wkt1=-2.04276e-008         
         wkt2=2.25198e-009                wute=1.46341e-008         
         wub1=1.6024e-025                wuc1=5.48537e-017         
          pa0=-9.12858e-014                pags=5.06732e-015         
        pketa=-1.96098e-016               pvoff=-4.96934e-016         
        pvth0=-1.04216e-015                 pk1=4.58771e-015         
          pk2=-2.44467e-015               peta0=   7.5e-021         
          pu0=-1.72303e-017                 pua=-2.39335e-023         
          pub=2.55806e-032                 puc=3.43353e-024         
        pvsat=1.2453e-011               ppclm=-1.7903e-016         
     ppdiblc2=-1.1423e-016                pcit=1.26684e-018         
         pkt1=3.43538e-015                pkt2=-8.50589e-017         
         pute=-6.73169e-015                pub1=-3.18154e-032         
         puc1=-1.16093e-023         
 ***************************************************************************
 ***        model parameters  model name:   0:pch.12   model type:pmos   ***
 ***************************************************************************

   *** general parameters ***
    deriv=   0.           

   ***  level 49  model parameters  ***

       hspver=    2006.03               level=         49         
      version=       3.24            paramchk=          0         
       apwarn=          1                lite=          0         
       vgslim=          0             binUnit=          2         
       capMod=          3               xpart=          1         
       mobMod=          1              nqsMod=          0         
       stiMod=          0                 elm=          5         
     sfvtflag=          0                 tox=  4.08e-009 meter   
           xj=   1.7e-007 meter       binflag=          0         
         lmin=   1.8e-007 meter          lmax=     5e-007 meter   
         wmin=     5e-007 meter          wmax=   1.2e-006 meter   
         lref=          0 meter          wref=          0 meter   
         lint=   1.5e-008 meter          wint=     5e-009 meter   
        lmult=          1               wmult=          1         
           ll=          0                 lln=         -1         
           lw=          0                 lwn=          1         
          lwl=          0                  wl=          0         
          wln=          1                  ww=          0         
          wwn=          1                 wwl=          0         
          dwg=          0 m/V             dwb=          0 m/V^1/2 
           xl=    -2e-008                  xw=          0         
           a0=   0.516696                 ags=  0.0105476 V^-1    
           b0=          0 meter            b1=          0 meter   
         keta=  0.0179111 V^-1           voff=  -0.128671 V       
        ngate=          0 cm^-3           vbx=          0 V       
          vbm=         -3 V                xt=  1.55e-007 meter   
         vth0=  -0.446356 V               nch=   3.9e+017 cm^-3   
         nsub=     6e+016 cm^-3           nlx=          0 meter   
       gamma1=          0 V^-1/2       gamma2=          0 V^-1/2  
           k1=   0.717148 V^1/2            k2= -0.0274921         
           k3=          0                 k3b=          0 V^-1    
           w0=          0 meter          dvt0=          0         
         dvt1=          0                dvt2=          0 V^-1    
        dvt0w=          0 meter^-1      dvt1w=          0 meter^-1
        dvt2w=          0 V^-1           dsub=          0         
         eta0=-0.00046875                etab=0.000671875 V^-1    
           u0= 0.00685834 m^2/V/sec         ua=-7.33643e-011 m/V     
           ub=1.42581e-018 (m/V)^2          uc=-5.9463e-011 V^-1    
         vsat=     130812 m/sec            a1=          0 v^-1    
           a2=        0.4               delta=       0.01 V       
         rdsw=        530 ohm-um         prwg=          0 V^-1    
         prwb=          0 V^-1/2           wr=          1         
         pclm=   0.858547             pdiblc1=     1e-006         
      pdiblc2=  0.0091503             pdiblcb=       0.01 V^-1    
       pscbe1=   3.5e+008 V/m          pscbe2=     5e-007 V/m     
        drout=          0                pvag=          0         
      nfactor=          1                cdsc=          0 f/m^2   
        cdscb=          0 f/V/m^2       cdscd=  -5.2e-005 f/V/m^2 
          cit= 0.00012747 f/m^2        alpha0=          0 m/V     
        beta0=    22.6783 V               dlc=     2e-009 meter   
          dwc=     5e-009 meter           clc=     1e-007 meter   
          cle=        0.6                cgso=  3.28e-010 f/m     
         cgdo=  3.28e-010 f/m            cgbo=8.46356e-011 f/m     
         cgsl=          0 f/m            cgdl=          0 f/m     
       ckappa=        0.6                  cf=          0 f/m     
         acde=          1 m/V            moin=         15 V^1/2   
         toxm=  4.08e-009 m            dtoxcv=          0 m       
          vfb (not used)                alpha1=    6.87305 1/V     
         ijth=        0.1 A              noff=          1         
       voffcv=          0                 tcj=  0.0009739 1/K     
        tcjsw=0.000413072 1/K          tcjswg=0.000413072 1/K     
          tpb= 0.00157203 V/K           tpbsw= 0.00157203 V/K     
       tpbswg= 0.00157203 V/K             llc=     -0.039         
          lwc=          0                lwlc=          0         
          wlc=          0                 wwc=          0         
         wwlc=          0                tnom=     298.15 K       
          kt1=  -0.221147 V              kt1l=          0         
          kt2= -0.0148242                 ute=  -0.581299         
          ua1= 1.224e-009 m/V             ub1=-1.61758e-018 (m/V)^2 
          uc1=-2.28186e-011 m/V^2            at=      10000 m/s     
          prt=          0         
          using Berkeley noise model       noiMod=          2         
         noia=   9.5e+018                noib=     100000         
         noic=   1.4e-012                  em=     3e+007         
           ef=      1.064                  af=          1         
           kf=          0              gdsnoi=-1.23457e-029         
          using Berkeley diodes          using ACM 
          acm=        12                 hdif=    2e-007 meter    
         ldif=    9e-008 meter             js=  2.5e-007 amp/m^2  
          jsw=  1.2e-012 amp/m            xti=         3          
           nj=         1                   cj=  0.001121 f/m^2    
           mj=    0.4476                   pb=  0.895226 V        
         cjsw=2.481e-010 f/m             mjsw=  0.368362          
          php (not used)                  pbsw=  0.895226 V        
       cjgate (not used)                 cjswg=4.221e-010 f/m      
        mjswg=  0.368362                pbswg=  0.895226 V        
          la0=1.67833e-007                lags=4.25357e-009         
        lketa=-1.82394e-009               lvoff=-3.03829e-010         
        lvth0=-8.20272e-009                 lk1=-8.84428e-009         
          lk2=4.9045e-009               leta0=2.55967e-010         
        letab=-3.47344e-010                 lu0=2.11986e-010         
          lua=2.38156e-017                 lub=-3.42506e-026         
          luc=8.80358e-018               lvsat=-0.000365614         
        lpclm=6.36538e-008            lpdiblc2=3.82366e-010         
       lcdscd=  2.34e-011                lcit=4.88189e-011         
         lkt1=-4.08327e-009                lkt2=-2.43147e-009         
         lute=7.74856e-009                lub1=6.72448e-026         
         luc1=7.11023e-018                 wa0=4.82186e-007         
         wags=1.25942e-008               wketa=5.25542e-009         
        wvoff=2.83647e-009               wvth0=5.73856e-009         
          wk1=-1.14173e-007                 wk2=3.8377e-008         
          wu0=9.22958e-010                 wua=5.72652e-016         
          wub=-7.84565e-025                 wuc=-1.01884e-016         
        wpclm=5.67129e-008            wpdiblc2=-1.57427e-009         
       wcdscd=-2.03044e-011                wcit=-2.06417e-011         
         wkt1=2.7434e-010                wkt2=-6.11357e-009         
         wute=-5.58402e-008                wub1=8.30214e-026         
         wuc1=7.53019e-017                 pa0=-8.47662e-014         
         pags=-5.66737e-015               pketa=-9.60916e-016         
        pvoff=-1.43435e-015               pvth0=-1.03525e-015         
          pk1=1.52131e-014                 pk2=-6.23599e-015         
        peta0=     3e-021                 pu0=-1.4287e-016         
          pua=-7.79921e-023                 pub=7.06507e-032         
          puc=3.29781e-024               ppclm=-2.55208e-014         
     ppdiblc2=7.08422e-016              pcdscd=9.13697e-018         
         pcit=2.68342e-018                pkt1=8.19609e-017         
         pkt2=1.53724e-015                pute=1.31606e-015         
         pub1=-2.12297e-032                puc1=-9.46185e-024         
 

  
  **warning** (mux_tf.sp:29) Only 1 connection at node ss called in element cz0.
 related element is ignored, and node is isolated.

      
 **info** set option symb=1 internally to help for convergence.
 *****************************************************************
 ******  option summary
 ******
 runlvl  = 3         bypass  = 2         
  Opening plot unit= 79
 file=mux_tf.pa0

1****** HSPICE -- G-2012.06-SP1 32-BIT (Aug 27 2012) win32 ******               
 ******  
 4 to 1 multiplexer

  ******  operating point information tnom=  25.000 temp=  25.000 *****
 ***** operating point status is all       simulation time is     0.     
     node    =voltage       node    =voltage       node    =voltage

 + 0:in_a0   =   1.8000   0:in_a1   =   1.8000   0:in_a2   =   1.8000 
 + 0:in_a3   =   1.8000   0:in_s0   =   1.8000   0:in_s1   =   1.8000 
 + 0:ndd     =   1.8000   0:out_z   =   1.8000   0:ss      =   0.     
 + 1:n0      =   1.8000   1:n1      =   1.8000   1:n2      =   1.8000 
 + 1:n3      =  93.6604n  1:not_n0  =  10.4067n  1:not_n1  =  10.4067n
 + 1:not_n2  =  10.4067n  1:not_n3  =   1.8000   1:not_s0  =  10.4067n
 + 1:not_s1  =  10.4067n  1:not_z   =  10.4067n  2:ab      =   1.4951 
 + 2:bc      =  44.1486m  3:ab      =   1.4719   3:bc      =  14.3766n
 + 4:ab      =   1.4670   4:bc      =   1.4434   5:ab      =  62.4403n
 + 5:bc      =  31.2201n 12:ab      =   1.8000  12:bc      =   1.8000 
 +12:cd      =   1.8000 


 **** voltage sources

 subckt                                                              
 element   0:va0       0:va1       0:va2       0:va3       0:vdd     
  volts       1.8000      1.8000      1.8000      1.8000      1.8000 
  current     0.          0.          0.          0.       -145.5459p
  power       0.          0.          0.          0.        261.9826p

 subckt                          
 element   0:vs0       0:vs1     
  volts       1.8000      1.8000 
  current     0.          0.     
  power       0.          0.     

     total voltage source power dissipation=  261.9826p       watts




 **** mosfets


 subckt    xmux.xnand  xmux.xnand  xmux.xnand  xmux.xnand  xmux.xnand
 element   2:mn1       2:mn2       2:mn3       2:mp1       2:mp2     
 model     0:nch.16    0:nch.16    0:nch.16    0:pch.12    0:pch.12  
 region        Cutoff      Cutoff      Cutoff      Cutoff      Linear
  id          5.9682p     1.8315p     3.1501p  -2.925e-19    -4.0361p
  ibs        -2.2544a    -1.8501a  -1.059e-27     0.        7.666e-28
  ibd        -2.2544a  -305.4665a    -1.8501a   1.342e-24   1.342e-24
  vgs       304.8771m   -44.1486m    10.4067n     0.         -1.8000 
  vds       304.8771m     1.4510     44.1486m    -9.4233n    -9.4233n
  vbs        -1.4951    -44.1486m     0.          0.          0.     
  vth       800.6186m   534.2652m   526.4788m  -511.5330m  -511.5330m
  vdsat      46.7409m    45.1734m    45.1199m   -40.7739m  -721.5015m
  vod      -495.7414m  -578.4139m  -526.4787m   511.5330m    -1.2885 
  beta        1.1764m     1.2316m     1.2320m   536.9099u   430.0166u
  gam eff     1.1319    993.4619m   987.9204m   649.3861m   649.3861m
  gm        184.5469p    53.2395p    91.0974p     8.8471a     1.8303p
  gds         8.0313p   809.1622f    29.1268p    31.0393p   428.8056u
  gmb        24.4771p    15.8254p    29.0660p     3.4202a     1.1700p
  cdtot     471.6763a   484.8948a   620.6504a     1.7558f     4.0170f
  cgtot     361.4915a   417.3951a   417.3948a     1.1323f     2.1533f
  cstot     484.8948a   620.6504a   629.9625a     1.7558f     3.4736f
  cbtot     799.0818a     1.0040f     1.1490f     3.2400f     3.2739f
  cgs       129.7577a   129.7592a   129.7590a   350.9740a     1.1192f
  cgd       129.7410a   129.7410a   129.7410a   350.9601a     1.0549f



 subckt    xmux.xnand  xmux.xnand  xmux.xnand  xmux.xnand  xmux.xnand
 element   2:mp3       3:mn1       3:mn2       3:mn3       3:mp1     
 model     0:pch.12    0:nch.16    0:nch.16    0:nch.16    0:pch.12  
 region        Linear      Cutoff      Cutoff      Linear      Cutoff
  id         -4.0361p    13.8577p     9.7681p    11.2400p    -1.1584a
  ibs       7.666e-28    -2.2544a  -1.265e-24  -3.726e-27     0.     
  ibd       1.342e-24    -2.2544a    -1.8553f  -1.258e-24   5.317e-24
  vgs        -1.8000    328.0696m    -3.9699n     1.8000      0.     
  vds        -9.4233n   328.0696m     1.4719     14.3766n   -37.3215n
  vbs         0.         -1.4719    -14.3766n     0.          0.     
  vth      -511.5330m   797.3126m   522.5032m   526.6017m  -511.5330m
  vdsat    -721.5015m    46.7171m    45.1195m   478.4704m   -40.7739m
  vod        -1.2885   -469.2430m  -522.5032m     1.2734    511.5330m
  beta      430.0166u     1.1775m     1.2321m     1.0262m   536.9099u
  gam eff   649.3861m     1.1301    987.9204m   987.9204m   649.3861m
  gm          1.8303p   427.6645p   282.4510p     3.8196p    35.0394a
  gds       428.8056u    18.0601p     4.1573p   786.4717u    31.0392p
  gmb         1.1700p    56.9259p    85.8632p     2.0909p    13.5457a
  cdtot       4.0170f   471.6763a   485.9998a     1.2475f     1.7558f
  cgtot       2.1533f   361.4915a   417.3948a   738.6766a     1.1323f
  cstot       3.4736f   485.9999a   629.9625a     1.1371f     1.7558f
  cbtot       3.2739f   800.1869a     1.0144f     1.1661f     3.2400f
  cgs         1.1192f   129.7577a   129.7590a   341.5911a   350.9740a
  cgd         1.0549f   129.7410a   129.7410a   362.2818a   350.9601a



 subckt    xmux.xnand  xmux.xnand  xmux.xnand  xmux.xnand  xmux.xnand
 element   3:mp2       3:mp3       4:mn1       4:mn2       4:mn3     
 model     0:pch.12    0:pch.12    0:nch.16    0:nch.16    0:nch.16  
 region        Linear      Cutoff      Cutoff      Cutoff      Cutoff
  id        -15.9854p    -1.1584a    16.5824p    13.9579p     9.6497p
  ibs       3.036e-27     0.         -2.2544a    -2.2544a  -3.677e-27
  ibd       5.314e-24   5.317e-24    -2.2544a    -2.2544a    -1.5224f
  vgs        -1.8000      0.        333.0199m   356.5895m    10.4067n
  vds       -37.3215n   -37.3215n   333.0199m    23.5696m     1.4434 
  vbs         0.          0.         -1.4670     -1.4434      0.     
  vth      -511.5330m  -511.5330m   796.6048m   799.0697m   522.5826m
  vdsat    -721.5015m   -40.7739m    46.7120m    46.6956m    45.1195m
  vod        -1.2885    511.5330m  -463.5849m  -442.4802m  -522.5826m
  beta      430.0166u   536.9099u     1.1778m     1.1771m     1.2321m
  gam eff   649.3861m   649.3861m     1.1297      1.1279    987.9204m
  gm          7.2489p    35.0394a   511.4968p   429.5412p   279.0298p
  gds       428.8056u    31.0392p    21.4705p   408.4958p     4.1421p
  gmb         4.6340p    13.5457a    68.1370p    59.0241p    84.9065p
  cdtot       4.0170f     1.7558f   471.6763a   486.2377a   487.3803a
  cgtot       2.1533f     1.1323f   361.4915a   361.4915a   417.3948a
  cstot       3.4736f     1.7558f   486.2378a   487.3806a   629.9625a
  cbtot       3.2739f     3.2400f   800.4248a   816.1288a     1.0158f
  cgs         1.1192f   350.9740a   129.7577a   129.7577a   129.7590a
  cgd         1.0549f   350.9601a   129.7410a   129.7410a   129.7410a



 subckt    xmux.xnand  xmux.xnand  xmux.xnand  xmux.xnand  xmux.xnand
 element   4:mp1       4:mp2       4:mp3       5:mn1       5:mn2     
 model     0:pch.12    0:pch.12    0:pch.12    0:nch.16    0:nch.16  
 region        Cutoff      Cutoff      Linear      Linear      Linear
  id         -1.3563a    -1.3563a   -18.7151p    24.4087p    24.4087p
  ibs         0.          0.        3.555e-27  -5.487e-24  -2.748e-24
  ibd       6.225e-24   6.225e-24   6.221e-24  -8.210e-24  -5.471e-24
  vgs         0.          0.         -1.8000      1.8000      1.8000 
  vds       -43.6947n   -43.6947n   -43.6947n    31.2201n    31.2201n
  vbs         0.          0.          0.        -62.4403n   -31.2201n
  vth      -511.5330m  -511.5330m  -511.5330m   526.6017m   526.6017m
  vdsat     -40.7739m   -40.7739m  -721.5015m   478.4704m   478.4704m
  vod       511.5330m   511.5330m    -1.2885      1.2734      1.2734 
  beta      536.9099u   536.9099u   430.0166u     1.0262m     1.0262m
  gam eff   649.3861m   649.3861m   649.3861m   987.9204m   987.9204m
  gm         41.0228a    41.0228a     8.4867p     8.2945p     8.2945p
  gds        31.0392p    31.0392p   428.8056u   786.4717u   786.4717u
  gmb        15.8589a    15.8589a     5.4254p     4.5406p     4.5406p
  cdtot       1.7558f     1.7558f     4.0170f     1.2475f     1.2475f
  cgtot       1.1323f     1.1323f     2.1533f   738.6766a   738.6766a
  cstot       1.7558f     1.7558f     3.4736f     1.1371f     1.1371f
  cbtot       3.2400f     3.2400f     3.2739f     1.1661f     1.1661f
  cgs       350.9740a   350.9740a     1.1192f   341.5911a   341.5911a
  cgd       350.9601a   350.9601a     1.0549f   362.2818a   362.2818a



 subckt    xmux.xnand  xmux.xnand  xmux.xnand  xmux.xnand  xmux.xnot_
 element   5:mn3       5:mp1       5:mp2       5:mp3       6:mn1     
 model     0:nch.16    0:pch.12    0:pch.12    0:pch.12    0:nch.16  
 region        Linear      Cutoff      Cutoff      Cutoff      Linear
  id         24.4087p    -4.5361p    -4.5361p    -4.5361p     8.1362p
  ibs      -8.091e-27   1.204e-27   1.204e-27   1.204e-27  -2.697e-27
  ibd      -2.731e-24   142.0489a   142.0489a   142.0489a  -9.105e-25
  vgs         1.8000      0.          0.          0.          1.8000 
  vds        31.2201n    -1.8000     -1.8000     -1.8000     10.4067n
  vbs         0.          0.          0.          0.          0.     
  vth       526.6017m  -503.4316m  -503.4316m  -503.4316m   526.6017m
  vdsat     478.4704m   -40.7720m   -40.7720m   -40.7720m   478.4704m
  vod         1.2734    503.4316m   503.4316m   503.4316m     1.2734 
  beta        1.0262m   537.9989u   537.9989u   537.9989u     1.0262m
  gam eff   987.9204m   649.3861m   649.3861m   649.3861m   987.9204m
  gm          8.2945p   126.1801p   126.1801p   126.1801p     2.7648p
  gds       786.4717u     3.6227p     3.6227p     3.6227p   786.4717u
  gmb         4.5406p    46.5941p    46.5941p    46.5941p     1.5135p
  cdtot       1.2475f     1.2600f     1.2600f     1.2600f     1.2475f
  cgtot     738.6766a     1.1323f     1.1323f     1.1323f   738.6766a
  cstot       1.1371f     1.7558f     1.7558f     1.7558f     1.1371f
  cbtot       1.1661f     2.7442f     2.7442f     2.7442f     1.1661f
  cgs       341.5911a   350.9745a   350.9745a   350.9745a   341.5911a
  cgd       362.2818a   350.9600a   350.9600a   350.9600a   362.2818a



 subckt    xmux.xnot_  xmux.xnot_  xmux.xnot_  xmux.xnot_  xmux.xnot_
 element   6:mp2       7:mn1       7:mp2       8:mn1       8:mp2     
 model     0:pch.12    0:nch.16    0:pch.12    0:nch.16    0:pch.12  
 region        Cutoff      Linear      Cutoff      Linear      Cutoff
  id         -4.5361p     8.1362p    -4.5361p     8.1362p    -4.5361p
  ibs       1.204e-27  -2.697e-27   1.204e-27  -2.697e-27   1.204e-27
  ibd       142.0491a  -9.105e-25   142.0492a  -9.105e-25   142.0492a
  vgs        -9.4233n     1.8000    -37.3215n     1.8000    -43.6947n
  vds        -1.8000     10.4067n    -1.8000     10.4067n    -1.8000 
  vbs         0.          0.          0.          0.          0.     
  vth      -503.4316m   526.6017m  -503.4316m   526.6017m  -503.4316m
  vdsat     -40.7720m   478.4704m   -40.7720m   478.4704m   -40.7720m
  vod       503.4316m     1.2734    503.4316m     1.2734    503.4316m
  beta      537.9989u     1.0262m   537.9989u     1.0262m   537.9989u
  gam eff   649.3861m   987.9204m   649.3861m   987.9204m   649.3861m
  gm        126.1802p     2.7648p   126.1803p     2.7648p   126.1803p
  gds         3.6227p   786.4717u     3.6227p   786.4717u     3.6227p
  gmb        46.5941p     1.5135p    46.5942p     1.5135p    46.5942p
  cdtot       1.2600f     1.2475f     1.2600f     1.2475f     1.2600f
  cgtot       1.1323f   738.6766a     1.1323f   738.6766a     1.1323f
  cstot       1.7558f     1.1371f     1.7558f     1.1371f     1.7558f
  cbtot       2.7442f     1.1661f     2.7442f     1.1661f     2.7442f
  cgs       350.9745a   341.5911a   350.9745a   341.5911a   350.9745a
  cgd       350.9600a   362.2818a   350.9600a   362.2818a   350.9600a



 subckt    xmux.xnot_  xmux.xnot_  xmux.xnot_  xmux.xnot_  xmux.xnot_
 element   9:mn1       9:mp2      10:mn1      10:mp2      11:mn1     
 model     0:nch.16    0:pch.12    0:nch.16    0:pch.12    0:nch.16  
 region        Cutoff      Linear      Linear      Cutoff      Linear
  id         11.1646p   -14.7765p     8.1362p    -4.5361p     8.1362p
  ibs      -4.298e-27   2.807e-27  -2.697e-27   1.204e-27  -2.697e-27
  ibd       -11.8831f   4.912e-24  -9.105e-25   142.0490a  -9.105e-25
  vgs        93.6604n    -1.8000      1.8000      0.          1.8000 
  vds         1.8000    -34.4991n    10.4067n    -1.8000     10.4067n
  vbs         0.          0.          0.          0.          0.     
  vth       521.5897m  -511.5330m   526.6017m  -503.4316m   526.6017m
  vdsat      45.1194m  -721.5015m   478.4704m   -40.7720m   478.4704m
  vod      -521.5896m    -1.2885      1.2734    503.4316m     1.2734 
  beta        1.2322m   430.0166u     1.0262m   537.9989u     1.0262m
  gam eff   987.9204m   649.3861m   987.9204m   649.3861m   987.9204m
  gm        322.8218p     6.7007p     2.7648p   126.1801p     2.7648p
  gds         4.3692p   428.8056u   786.4717u     3.6227p   786.4717u
  gmb        97.0261p     4.2836p     1.5135p    46.5941p     1.5135p
  cdtot     471.6763a     4.0170f     1.2475f     1.2600f     1.2475f
  cgtot     417.3948a     2.1533f   738.6766a     1.1323f   738.6766a
  cstot     629.9625a     3.4736f     1.1371f     1.7558f     1.1371f
  cbtot       1.0001f     3.2739f     1.1661f     2.7442f     1.1661f
  cgs       129.7590a     1.1192f   341.5911a   350.9745a   341.5911a
  cgd       129.7410a     1.0549f   362.2818a   350.9600a   362.2818a



 subckt    xmux.xnot_  xmux.xnor4  xmux.xnor4  xmux.xnor4  xmux.xnor4
 element  11:mp2      12:mpa      12:mpb      12:mpc      12:mpd     
 model     0:pch.12    0:pch.12    0:pch.12    0:pch.12    0:pch.12  
 region        Cutoff      Linear      Linear      Linear      Cutoff
  id         -4.5361p    -6.3360p    -6.3361p    -6.3361p    -4.5361p
  ibs       1.204e-27   1.203e-27   2.109e-24   4.216e-24   6.323e-24
  ibd       142.0490a   2.106e-24   4.214e-24   6.321e-24   142.0489a
  vgs         0.         -1.8000     -1.8000     -1.8000      9.8798n
  vds        -1.8000    -14.7929n   -14.7929n   -14.7930n    -1.8000 
  vbs         0.          0.         14.7929n    29.5859n    44.3789n
  vth      -503.4316m  -511.5330m  -511.5330m  -511.5330m  -503.4316m
  vdsat     -40.7720m  -721.5015m  -721.5015m  -721.5015m   -40.7720m
  vod       503.4316m    -1.2885     -1.2885     -1.2885    503.4316m
  beta      537.9989u   430.0166u   430.0166u   430.0166u   537.9989u
  gam eff   649.3861m   649.3861m   649.3861m   649.3861m   649.3861m
  gm        126.1801p     2.8732p     2.8732p     2.8732p   126.1800p
  gds         3.6227p   428.8056u   428.8056u   428.8056u     3.6227p
  gmb        46.5941p     1.8368p     1.8368p     1.8368p    46.5941p
  cdtot       1.2600f     4.0170f     4.0170f     4.0170f     1.2600f
  cgtot       1.1323f     2.1533f     2.1533f     2.1533f     1.1323f
  cstot       1.7558f     3.4736f     3.4736f     3.4736f     1.7558f
  cbtot       2.7442f     3.2739f     3.2739f     3.2739f     2.7442f
  cgs       350.9745a     1.1192f     1.1192f     1.1192f   350.9745a
  cgd       350.9600a     1.0549f     1.0549f     1.0549f   350.9600a



 subckt    xmux.xnor4  xmux.xnor4  xmux.xnor4  xmux.xnor4  xmux.xnot_
 element  12:mna      12:mnb      12:mnc      12:mnd      13:mn1     
 model     0:nch.16    0:nch.16    0:nch.16    0:nch.16    0:nch.16  
 region        Cutoff      Cutoff      Cutoff      Linear      Cutoff
  id          1.3601a     1.3601a     1.3601a     8.1362p    11.1645p
  ibs         0.          0.          0.       -2.697e-27  -4.298e-27
  ibd      -9.132e-25  -9.132e-25  -9.132e-25  -9.105e-25   -11.8830f
  vgs        10.4067n    10.4067n    10.4067n     1.8000     10.4067n
  vds        10.4067n    10.4067n    10.4067n    10.4067n     1.8000 
  vbs         0.          0.          0.          0.          0.     
  vth       526.6017m   526.6017m   526.6017m   526.6017m   521.5897m
  vdsat      45.1200m    45.1200m    45.1200m   478.4704m    45.1194m
  vod      -526.6017m  -526.6017m  -526.6017m     1.2734   -521.5897m
  beta        1.2320m     1.2320m     1.2320m     1.0262m     1.2322m
  gam eff   987.9204m   987.9204m   987.9204m   987.9204m   987.9204m
  gm         39.3333a    39.3333a    39.3333a     2.7648p   322.8210p
  gds       130.6953p   130.6953p   130.6953p   786.4717u     4.3692p
  gmb        12.5882a    12.5882a    12.5882a     1.5135p    97.0259p
  cdtot     629.9626a   629.9626a   629.9626a     1.2475f   471.6763a
  cgtot     417.3948a   417.3948a   417.3948a   738.6766a   417.3948a
  cstot     629.9626a   629.9626a   629.9626a     1.1371f   629.9625a
  cbtot       1.1583f     1.1583f     1.1583f     1.1661f     1.0001f
  cgs       129.7590a   129.7590a   129.7590a   341.5911a   129.7590a
  cgd       129.7410a   129.7410a   129.7410a   362.2818a   129.7410a



 subckt    xmux.xnot_
 element  13:mp2     
 model     0:pch.12  
 region        Linear
  id        -14.7764p
  ibs       2.807e-27
  ibd       4.912e-24
  vgs        -1.8000 
  vds       -34.4989n
  vbs         0.     
  vth      -511.5330m
  vdsat    -721.5015m
  vod        -1.2885 
  beta      430.0166u
  gam eff   649.3861m
  gm          6.7006p
  gds       428.8056u
  gmb         4.2836p
  cdtot       4.0170f
  cgtot       2.1533f
  cstot       3.4736f
  cbtot       3.2739f
  cgs         1.1192f
  cgd         1.0549f




          ***** job concluded
1****** HSPICE -- G-2012.06-SP1 32-BIT (Aug 27 2012) win32 ******               
 ******  
 4 to 1 multiplexer

  ******  job statistics summary tnom=  25.000 temp=  25.000 *****

  ******  HSPICE Threads Information  ******

  Command Line Threads Count :     2
  Available CPU Count        :     2
  Actual Threads Count       :     1


  ******  Circuit Statistics  ******
  # nodes       =     124 # elements   =      53
  # resistors   =       0 # capacitors =       0 # inductors   =       0
  # mutual_inds =       0 # vccs       =       0 # vcvs        =       0
  # cccs        =       0 # ccvs       =       0 # volt_srcs   =       7
  # curr_srcs   =       0 # diodes     =       0 # bjts        =       0
  # jfets       =       0 # mosfets    =      46 # U elements  =       0
  # T elements  =       0 # W elements =       0 # B elements  =       0
  # S elements  =       0 # P elements =       0 # va device   =       0
  # vector_srcs =       0 # N elements =       0


  ******  Runtime Statistics (seconds)  ******

  analysis           time    # points   tot. iter  conv.iter
  op point           0.06           1          21
  transient          3.28   128000001        4668        1800 rev=       124
  readin             0.15
  errchk             0.05
  setup              0.02
  output             0.00


           peak memory used         55.98 megabytes
           total cpu time            3.57 seconds
           total elapsed time       11.65 seconds
           job started at     16:49:21 02/14/2013
           job ended   at     16:49:33 02/14/2013


  lic: Release hspice token(s) 
 lic: total license checkout elapse time:        8.07(s)
