 ****** HSPICE -- G-2012.06-SP1 32-BIT (Aug 27 2012) win32 ******               
  Copyright (C) 2012 Synopsys, Inc. All Rights Reserved.                        
  Unpublished-rights reserved under US copyright laws.
  This program is protected by law and is subject to the
  terms and conditions of the license agreement from Synopsys.
  Use of this program is your acceptance to be bound by the
  license agreement. HSPICE is the trademark of Synopsys, Inc.
  Input File: inverter.sp                                                       
  Command line options: -mt 2 -i inverter.sp -o inverter.lis
  lic:  
  lic: FLEXlm: v10.9.8 
  lic: USER:   Bangonkali           HOSTNAME: Blue 
  lic: HOSTID: "b8975a02aecc 005056c00001 005056c00008 08002700905e" PID:      4
 484 
  lic: Using FLEXlm license file: 
  lic: 27000@Blue 
  lic: Checkout 1 hspice 
  lic: License/Maintenance for hspice will expire on 31-dec-2019/2019.12 
  lic: NODE LOCKED license on hostid "b8975a02aecc 005056c00001 005056c00008 080
 02700905e" 
  lic:   
 Init: read install configuration file: c:\synopsys\Hspice_G-2012.06-SP1\meta.cfg
  **warning** (inverter.sp:25) Global net name, "ndd", in subckt pin list. The pin will be connected to the local net. Recommend to not use global net names in subckt pin lists.
1****** HSPICE -- G-2012.06-SP1 32-BIT (Aug 27 2012) win32 ******               
 ******  
 inverter

  ******  circuit name directory
 circuit number to circuit name directory
   number circuitname                     definition         multiplier
        0 main circuit
        1 x_cvsl.                         inverter           1.00 
  **error** (inverter.sp:10) DC Analysis settings have been parsed as Start:  0.0000     Stop:  1.8000     Step: 1.00000E-12 Sweep size: 1.80000E+12. The number of steps is larger than allowed 1E+9.
  **info** (inverter.sp:15) DC voltage reset to initial transient source value              in source        0:vin                 new dc=  0.1800D+01

          ***** job aborted
1****** HSPICE -- G-2012.06-SP1 32-BIT (Aug 27 2012) win32 ******               
 ******  
 inverter

  ******  job statistics summary tnom=  25.000 temp=  25.000 *****

  ******  HSPICE Threads Information  ******

  Command Line Threads Count :     2
  Available CPU Count        :     2
  Actual Threads Count       :     1


  ******  Circuit Statistics  ******
  # nodes       =       4 # elements   =       5
  # resistors   =       0 # capacitors =       1 # inductors   =       0
  # mutual_inds =       0 # vccs       =       0 # vcvs        =       0
  # cccs        =       0 # ccvs       =       0 # volt_srcs   =       2
  # curr_srcs   =       0 # diodes     =       0 # bjts        =       0
  # jfets       =       0 # mosfets    =       2 # U elements  =       0
  # T elements  =       0 # W elements =       0 # B elements  =       0
  # S elements  =       0 # P elements =       0 # va device   =       0
  # vector_srcs =       0 # N elements =       0


  ******  Runtime Statistics (seconds)  ******

  analysis           time    # points   tot. iter  conv.iter
  op point           0.00           1           0
  readin             0.14
  errchk             0.00
  setup              0.00
  output             0.00


           peak memory used         56.12 megabytes
           total cpu time            0.16 seconds
           total elapsed time        8.05 seconds
           job started at     12:23:06 02/10/2013
           job ended   at     12:23:14 02/10/2013


  **warning** (inverter.sp:25) Global net name, "ndd", in subckt pin list. The pin will be connected to the local net. Recommend to not use global net names in subckt pin lists.
1****** HSPICE -- G-2012.06-SP1 32-BIT (Aug 27 2012) win32 ******               
 ******  
 inverter

  ******  circuit name directory
 circuit number to circuit name directory
   number circuitname                     definition         multiplier
        0 main circuit
        1 x_cvsl.                         inverter           1.00 
  **error** (inverter.sp:10) DC Analysis settings have been parsed as Start:  0.0000     Stop:  1.8000     Step: 1.00000E-12 Sweep size: 1.80000E+12. The number of steps is larger than allowed 1E+9.
  **info** (inverter.sp:15) DC voltage reset to initial transient source value              in source        0:vin                 new dc=  0.1800D+01

          ***** job aborted
1****** HSPICE -- G-2012.06-SP1 32-BIT (Aug 27 2012) win32 ******               
 ******  
 inverter

  ******  job statistics summary tnom=  25.000 temp=  25.000 *****

  ******  HSPICE Threads Information  ******

  Command Line Threads Count :     2
  Available CPU Count        :     2
  Actual Threads Count       :     1


  ******  Circuit Statistics  ******
  # nodes       =       4 # elements   =       6
  # resistors   =       0 # capacitors =       1 # inductors   =       0
  # mutual_inds =       0 # vccs       =       0 # vcvs        =       0
  # cccs        =       0 # ccvs       =       0 # volt_srcs   =       2
  # curr_srcs   =       0 # diodes     =       0 # bjts        =       0
  # jfets       =       0 # mosfets    =       3 # U elements  =       0
  # T elements  =       0 # W elements =       0 # B elements  =       0
  # S elements  =       0 # P elements =       0 # va device   =       0
  # vector_srcs =       0 # N elements =       0


  ******  Runtime Statistics (seconds)  ******

  analysis           time    # points   tot. iter  conv.iter
  op point           0.00           1           0
  readin             0.14
  errchk             0.00
  setup              0.00
  output             0.00


           peak memory used         56.12 megabytes
           total cpu time            0.15 seconds
           total elapsed time        0.19 seconds
           job started at     12:23:06 02/10/2013
           job ended   at     12:23:14 02/10/2013


  **warning** (inverter.sp:25) Global net name, "ndd", in subckt pin list. The pin will be connected to the local net. Recommend to not use global net names in subckt pin lists.
1****** HSPICE -- G-2012.06-SP1 32-BIT (Aug 27 2012) win32 ******               
 ******  
 inverter

  ******  circuit name directory
 circuit number to circuit name directory
   number circuitname                     definition         multiplier
        0 main circuit
        1 x_cvsl.                         inverter           1.00 
  **error** (inverter.sp:10) DC Analysis settings have been parsed as Start:  0.0000     Stop:  1.8000     Step: 1.00000E-12 Sweep size: 1.80000E+12. The number of steps is larger than allowed 1E+9.
  **info** (inverter.sp:15) DC voltage reset to initial transient source value              in source        0:vin                 new dc=  0.1800D+01

          ***** job aborted
1****** HSPICE -- G-2012.06-SP1 32-BIT (Aug 27 2012) win32 ******               
 ******  
 inverter

  ******  job statistics summary tnom=  25.000 temp=  25.000 *****

  ******  HSPICE Threads Information  ******

  Command Line Threads Count :     2
  Available CPU Count        :     2
  Actual Threads Count       :     1


  ******  Circuit Statistics  ******
  # nodes       =       4 # elements   =       6
  # resistors   =       0 # capacitors =       1 # inductors   =       0
  # mutual_inds =       0 # vccs       =       0 # vcvs        =       0
  # cccs        =       0 # ccvs       =       0 # volt_srcs   =       2
  # curr_srcs   =       0 # diodes     =       0 # bjts        =       0
  # jfets       =       0 # mosfets    =       3 # U elements  =       0
  # T elements  =       0 # W elements =       0 # B elements  =       0
  # S elements  =       0 # P elements =       0 # va device   =       0
  # vector_srcs =       0 # N elements =       0


  ******  Runtime Statistics (seconds)  ******

  analysis           time    # points   tot. iter  conv.iter
  op point           0.00           1           0
  readin             0.14
  errchk             0.00
  setup              0.00
  output             0.00


           peak memory used         56.12 megabytes
           total cpu time            0.15 seconds
           total elapsed time        0.17 seconds
           job started at     12:23:06 02/10/2013
           job ended   at     12:23:14 02/10/2013


  **warning** (inverter.sp:25) Global net name, "ndd", in subckt pin list. The pin will be connected to the local net. Recommend to not use global net names in subckt pin lists.
1****** HSPICE -- G-2012.06-SP1 32-BIT (Aug 27 2012) win32 ******               
 ******  
 inverter

  ******  circuit name directory
 circuit number to circuit name directory
   number circuitname                     definition         multiplier
        0 main circuit
        1 x_cvsl.                         inverter           1.00 
  **error** (inverter.sp:10) DC Analysis settings have been parsed as Start:  0.0000     Stop:  1.8000     Step: 1.00000E-12 Sweep size: 1.80000E+12. The number of steps is larger than allowed 1E+9.
  **info** (inverter.sp:15) DC voltage reset to initial transient source value              in source        0:vin                 new dc=  0.1800D+01

          ***** job aborted
1****** HSPICE -- G-2012.06-SP1 32-BIT (Aug 27 2012) win32 ******               
 ******  
 inverter

  ******  job statistics summary tnom=  25.000 temp=  25.000 *****

  ******  HSPICE Threads Information  ******

  Command Line Threads Count :     2
  Available CPU Count        :     2
  Actual Threads Count       :     1


  ******  Circuit Statistics  ******
  # nodes       =       4 # elements   =       6
  # resistors   =       0 # capacitors =       1 # inductors   =       0
  # mutual_inds =       0 # vccs       =       0 # vcvs        =       0
  # cccs        =       0 # ccvs       =       0 # volt_srcs   =       2
  # curr_srcs   =       0 # diodes     =       0 # bjts        =       0
  # jfets       =       0 # mosfets    =       3 # U elements  =       0
  # T elements  =       0 # W elements =       0 # B elements  =       0
  # S elements  =       0 # P elements =       0 # va device   =       0
  # vector_srcs =       0 # N elements =       0


  ******  Runtime Statistics (seconds)  ******

  analysis           time    # points   tot. iter  conv.iter
  op point           0.00           1           0
  readin             0.13
  errchk             0.00
  setup              0.00
  output             0.00


           peak memory used         56.12 megabytes
           total cpu time            0.14 seconds
           total elapsed time        0.16 seconds
           job started at     12:23:06 02/10/2013
           job ended   at     12:23:14 02/10/2013


  lic: Release hspice token(s) 
 lic: total license checkout elapse time:        7.88(s)
