 ****** HSPICE -- G-2012.06-SP1 32-BIT (Aug 27 2012) win32 ******               
  Copyright (C) 2012 Synopsys, Inc. All Rights Reserved.                        
  Unpublished-rights reserved under US copyright laws.
  This program is protected by law and is subject to the
  terms and conditions of the license agreement from Synopsys.
  Use of this program is your acceptance to be bound by the
  license agreement. HSPICE is the trademark of Synopsys, Inc.
  Input File: nor4.sp                                                           
  Command line options: -mt 2 -i nor4.sp -o nor4.lis
  lic:  
  lic: FLEXlm: v10.9.8 
  lic: USER:   Bangonkali           HOSTNAME: Blue 
  lic: HOSTID: "b8975a02aecc 005056c00001 005056c00008 08002700905e" PID:      8
 028 
  lic: Using FLEXlm license file: 
  lic: 27000@Blue 
  lic: Checkout 1 hspice 
  lic: License/Maintenance for hspice will expire on 31-dec-2019/2019.12 
  lic: NODE LOCKED license on hostid "b8975a02aecc 005056c00001 005056c00008 080
 02700905e" 
  lic:   
 Init: read install configuration file: c:\synopsys\Hspice_G-2012.06-SP1\meta.cfg
 **error** (error:13).end is expected

               ***** job aborted
  lic: Release hspice token(s) 
 lic: total license checkout elapse time:        7.66(s)
